Version 4
SHEET 1 880 680
WIRE 192 80 16 80
WIRE 432 80 272 80
WIRE 16 96 16 80
WIRE 272 96 272 80
WIRE 192 176 16 176
WIRE 272 176 272 160
WIRE 272 176 192 176
WIRE 400 176 272 176
WIRE 192 192 192 176
WIRE 192 272 16 272
WIRE 400 272 272 272
WIRE 432 272 400 272
WIRE 16 288 16 272
WIRE 272 288 272 272
WIRE 400 288 400 272
WIRE 192 368 16 368
WIRE 272 368 272 352
WIRE 272 368 192 368
WIRE 400 368 400 352
WIRE 400 368 272 368
WIRE 192 384 192 368
FLAG 192 384 0
FLAG 432 272 50KHz
FLAG 192 192 0
FLAG 432 80 5KHz
SYMBOL voltage 16 80 R0
WINDOW 3 -447 86 Left 2
WINDOW 123 0 0 Left 0
WINDOW 39 0 0 Left 0
SYMATTR InstName V1
SYMATTR Value PULSE(0 3 0 10n 10n 100u 200u 50)
SYMBOL voltage 16 272 R0
WINDOW 3 -447 86 Left 2
WINDOW 123 0 0 Left 0
WINDOW 39 0 0 Left 0
SYMATTR InstName V2
SYMATTR Value PULSE(0 3 0 10n 10n 10u 20u 50)
SYMBOL cap 256 288 R0
SYMATTR InstName C2
SYMATTR Value 1n
SYMBOL res 288 256 R90
WINDOW 0 0 56 VBottom 2
WINDOW 3 32 56 VTop 2
SYMATTR InstName R2
SYMATTR Value 3.183k
SYMBOL cap 384 288 R0
SYMATTR InstName C1
SYMATTR Value 1n
SYMBOL cap 256 96 R0
SYMATTR InstName C3
SYMATTR Value 1n
SYMBOL res 288 64 R90
WINDOW 0 0 56 VBottom 2
WINDOW 3 32 56 VTop 2
SYMATTR InstName R1
SYMATTR Value 3.183k
TEXT -432 408 Left 2 !.tran 0 10m 0 0.0001
